06_Joshua_Smith/gisPython/Mocksville_Main_Circuit_Opendss/MOCKS_02/Elements/Lines.dss
New Line.254449019 Phases= 3 Bus1=254449016.1.2.3 Bus2=254449021.1.2.3 Length=91.15  units=m  Spacing=8'-ARM-NON-CENTER-POST-3PH wires=['2-ACSR-B-6X1' '2-ACSR-B-6X1' '2-ACSR-B-6X1' '2-ACSR-B-6X1']
New Line.254455143 Phases= 1 Bus1=254455140.2     Bus2=254455145.2     Length=83.27  units=m  Spacing=VERTICAL-1-PH-60-1PH wires=['2-ACSR-B-6X1' '2-ACSR-B-6X1']
New Line.384010360 Phases= 3 Bus1=254466454.1.2.3 Bus2=384010358.1.2.3 Length=30.85  units=m  Spacing=8'-ARM-NON-CENTER-POST-3PH wires=['2-ACSR-B-6X1' '2-ACSR-B-6X1' '2-ACSR-B-6X1' '2-ACSR-B-6X1']
New Line.254460401 Phases= 2 Bus1=254460398.2.3   Bus2=254460403.2.3   Length=98.10  units=m  Spacing=8'-ARM-STANDARD-2PH wires=['4-ACSR-B-6X1' '4-ACSR-B-6X1' '4-ACSR-B-6X1']
New Line.263785787 Phases= 2 Bus1=263785784.1.3   Bus2=254455529.1.3   Length=75.08  units=m  Spacing=8'-ARM-STANDARD-2PH wires=['4-ACSR-B-6X1' '4-ACSR-B-6X1' '4-ACSR-B-6X1']
New Line.259265359 Phases= 1 Bus1=259265360.2     Bus2=259265361.2     Length=90.86  units=m  Spacing=VERTICAL-1-PH-104-1PH wires=['1/0-ACSR-B-6X1' '1/0-ACSR-B-6X1']
New Line.385538837 Phases= 3 Bus1=385538834.1.2.3 Bus2=254449236.1.2.3 Length=54.04  units=m  Spacing=8'-ARM-NON-CENTER-POST-3PH wires=['1/0-ACSR-B-6X1' '1/0-ACSR-B-6X1' '1/0-ACSR-B-6X1' '1/0-ACSR-B-6X1']
New Line.254449098 Phases= 3 Bus1=254449088.1.2.3 Bus2=254449100.1.2.3 Length=30.54  units=m  Spacing=8'-ARM-NON-CENTER-POST-3PH wires=['1/0-ACSR-B-6X1' '1/0-ACSR-B-6X1' '1/0-ACSR-B-6X1' '1/0-ACSR-B-6X1']
New Line.254460591 Phases= 1 Bus1=254460588.3     Bus2=254460593.3     Length=107.30 units=m  Spacing=VERTICAL-1-PH-60-1PH wires=['2-ACSR-B-6X1' '2-ACSR-B-6X1']
New Line.262290642 Phases= 1 Bus1=262290639.2     Bus2=254432882.2     Length=89.40  units=m  Spacing=VERTICAL-1-PH-60-1PH wires=['4-ACSR-B-6X1' '4-ACSR-B-6X1']
New Line.254448319 Phases= 1 Bus1=254448316.2     Bus2=254448321.2     Length=106.40 units=m  Spacing=VERTICAL-1-PH-60-1PH wires=['2-ACSR-B-6X1' '2-ACSR-B-6X1']
New Line.254444555 Phases= 3 Bus1=254432462.1.2.3 Bus2=254444557.1.2.3 Length=48.94  units=m  Spacing=8'-ARM-NON-CENTER-POST-3PH wires=['336-AAC-B-19' '336-AAC-B-19' '336-AAC-B-19' '336-AAC-B-19']
New Line.262298263 Phases= 1 Bus1=262298260.3     Bus2=254460792.3     Length=48.65  units=m  Spacing=VERTICAL-1-PH-60-1PH wires=['2-ACSR-B-6X1' '2-ACSR-B-6X1']
New Line.254454299 Phases= 3 Bus1=254454296.1.2.3 Bus2=254454301.1.2.3 Length=38.54  units=m  Spacing=8'-ARM-NON-CENTER-POST-3PH wires=['2-ACSR-B-6X1' '2-ACSR-B-6X1' '2-ACSR-B-6X1' '2-ACSR-B-6X1']
New Line.254460985 Phases= 1 Bus1=254460982.3     Bus2=254460987.3     Length=70.39  units=m  Spacing=VERTICAL-1-PH-60-1PH wires=['2-ACSR-B-6X1' '2-ACSR-B-6X1']
New Line.262296480 Phases= 1 Bus1=262296477.3     Bus2=254455494.3     Length=95.23  units=m  Spacing=VERTICAL-1-PH-60-1PH wires=['2-ACSR-B-6X1' '2-ACSR-B-6X1']
New Line.254448947 Phases= 3 Bus1=254448944.1.2.3 Bus2=254448949.1.2.3 Length=13.10  units=m  Spacing=8'-ARM-NON-CENTER-POST-3PH wires=['1/0-ACSR-B-6X1' '1/0-ACSR-B-6X1' '1/0-ACSR-B-6X1' '2-ACSR-B-6X1']
New Line.254466441 Phases= 3 Bus1=254466437.1.2.3 Bus2=254466442.1.2.3 Length=73.20  units=m  Spacing=8'-ARM-NON-CENTER-POST-3PH wires=['2-ACSR-B-6X1' '2-ACSR-B-6X1' '2-ACSR-B-6X1' '2-ACSR-B-6X1']
New Line.254455397 Phases= 3 Bus1=254455389.1.2.3 Bus2=254455399.1.2.3 Length=57.31  units=m  Spacing=8'-ARM-NON-CENTER-POST-3PH wires=['4-ACSR-B-6X1' '4-ACSR-B-6X1' '4-ACSR-B-6X1' '2-ACSR-B-6X1']
New Line.262294773 Bus1=262294770.1     Bus2=260117537.1     LineCode=1/0-AL-HMWPECN-25KV Phases= 1 Length=447.00 units=m enable=yes
New Line.254454958 Phases= 1 Bus1=254454955.2     Bus2=254454960.2     Length=54.52  units=m  Spacing=VERTICAL-1-PH-60-1PH wires=['4-ACSR-B-6X1' '4-ACSR-B-6X1']
New Line.254460870 Phases= 1 Bus1=254460867.3     Bus2=254460872.3     Length=13.09  units=m  Spacing=VERTICAL-1-PH-60-1PH wires=['4-ACSR-B-6X1' '4-ACSR-B-6X1']
New Line.263903245 Phases= 1 Bus1=254460742.3     Bus2=263903247.3     Length=1.52   units=m  Spacing=VERTICAL-1-PH-60-1PH wires=['2-ACSR-B-6X1' '2-ACSR-B-6X1']
New Line.254466380 Phases= 3 Bus1=254466375.1.2.3 Bus2=254466381.1.2.3 Length=56.64  units=m  Spacing=8'-ARM-NON-CENTER-POST-3PH wires=['1/0-ACSR-B-6X1' '1/0-ACSR-B-6X1' '1/0-ACSR-B-6X1' '1/0-ACSR-B-6X1']
New Line.254454714 Phases= 1 Bus1=254454696.1     Bus2=254454716.1     Length=15.86  units=m  Spacing=VERTICAL-1-PH-60-1PH wires=['1/0-ACSR-B-6X1' '1/0-ACSR-B-6X1']
New Line.254460481 Phases= 1 Bus1=254460473.2     Bus2=254460483.2     Length=42.77  units=m  Spacing=VERTICAL-1-PH-60-1PH wires=['1/0-ACSR-WP-6X1' '1/0-ACSR-WP-6X1']
New Line.254454791 Phases= 1 Bus1=254454783.1     Bus2=254454793.1     Length=59.59  units=m  Spacing=VERTICAL-1-PH-60-1PH wires=['2-ACSR-B-6X1' '2-ACSR-B-6X1']
New Line.262294831 Phases= 1 Bus1=254449056.1     Bus2=262294833.1     Length=1.53   units=m  Spacing=VERTICAL-1-PH-60-1PH wires=['2-ACSR-B-6X1' '2-ACSR-B-6X1']
New Line.254449207 Phases= 3 Bus1=254449204.1.2.3 Bus2=254449209.1.2.3 Length=125.20 units=m  Spacing=8'-ARM-NON-CENTER-POST-3PH wires=['1/0-ACSR-B-6X1' '1/0-ACSR-B-6X1' '1/0-ACSR-B-6X1' '1/0-ACSR-B-6X1']
New Line.254444577 Phases= 3 Bus1=254444574.1.2.3 Bus2=254444579.1.2.3 Length=49.49  units=m  Spacing=8'-ARM-NON-CENTER-POST-3PH wires=['336-ACSR-B-18X1' '336-ACSR-B-18X1' '336-ACSR-B-18X1' '1/0-ACSR-B-6X1']
New Line.262298065 Phases= 1 Bus1=262298062.2     Bus2=254459929.2     Length=88.29  units=m  Spacing=VERTICAL-1-PH-60-1PH wires=['1/0-ACSR-B-6X1' '1/0-ACSR-B-6X1']
New Line.259221658 Phases= 1 Bus1=259221659.1     Bus2=259221660.1     Length=449.40 units=m  Spacing=VERTICAL-1-PH-104-1PH wires=['1/0-ACSR-B-6X1' '1/0-ACSR-B-6X1']
New Line.620369307 Phases= 1 Bus1=620369305.3     Bus2=254449645.3     Length=66.75  units=m  Spacing=VERTICAL-1-PH-60-1PH wires=['2-ACSR-B-6X1' '2-ACSR-B-6X1']
New Line.263619947 Bus1=263619944.3     Bus2=260854706.3     LineCode=1/0-AL-TRXLPELCJ-25KV Phases= 1 Length=160.50 units=m enable=yes
New Line.620295180 Phases= 3 Bus1=263903165.1.2.3 Bus2=620295179.1.2.3 Length=62.49  units=m  Spacing=8'-ARM-STANDARD-3PH wires=['2-ACSR-B-6X1' '2-ACSR-B-6X1' '2-ACSR-B-6X1' '2-ACSR-B-6X1']
New Line.254455654 Phases= 1 Bus1=254455651.1     Bus2=254455656.1     Length=82.59  units=m  Spacing=VERTICAL-1-PH-60-1PH wires=['2-ACSR-B-6X1' '2-ACSR-B-6X1']
New Line.254454724 Phases= 3 Bus1=254454721.1.2.3 Bus2=254454726.1.2.3 Length=64.59  units=m  Spacing=8'-ARM-NON-CENTER-POST-3PH wires=['2-ACSR-B-6X1' '2-ACSR-B-6X1' '1/0-ACSR-B-6X1' '2-ACSR-B-6X1']
New Line.263698300 Phases= 1 Bus1=254455135.2     Bus2=263698302.2     Length=1.53   units=m  Spacing=VERTICAL-1-PH-104-1PH wires=['1/0-ACSR-B-6X1' '1/0-ACSR-B-6X1']
New Line.262296273 Phases= 1 Bus1=262296270.1     Bus2=254454773.1     Length=58.10  units=m  Spacing=VERTICAL-1-PH-60-1PH wires=['2-ACSR-B-6X1' '2-ACSR-B-6X1']
New Line.259199759 Phases= 3 Bus1=259199760.1.2.3 Bus2=254444588.1.2.3 Length=37.61  units=m  Spacing=8'-ARM-NON-CENTER-POST-3PH wires=['336-ACSR-B-18X1' '336-ACSR-B-18X1' '336-ACSR-B-18X1' '1/0-ACSR-B-6X1']
New Line.259275413 Phases= 1 Bus1=254460074.3     Bus2=259275415.3     Length=21.17  units=m  Spacing=VERTICAL-1-PH-104-1PH wires=['1/0-ACSR-B-6X1' '1/0-ACSR-B-6X1']
New Line.263708786 Bus1=263708783.1     Bus2=260980705.1     LineCode=1/0-AL-TRXLPELCJ-25KV Phases= 1 Length=166.20 units=m enable=yes
New Line.254448764 Phases= 1 Bus1=254448761.1     Bus2=254448766.1     Length=126.60 units=m  Spacing=VERTICAL-1-PH-60-1PH wires=['4-ACSR-B-6X1' '4-ACSR-B-6X1']
New Line.262298267 Bus1=254460842.3     Bus2=262298269.3     LineCode=1/0-AL-HMWPECN-25KV Phases= 1 Length=1.53   units=m enable=yes
New Line.624142593 Phases= 1 Bus1=254448736.2     Bus2=624142595.2     Length=1.51   units=m  Spacing=VERTICAL-1-PH-60-1PH wires=['2-ACSR-B-6X1' '2-ACSR-B-6X1']
New Line.254448406 Phases= 3 Bus1=254448398.1.2.3 Bus2=254448408.1.2.3 Length=96.77  units=m  Spacing=8'-ARM-NON-CENTER-POST-3PH wires=['336-ACSR-B-18X1' '336-ACSR-B-18X1' '336-ACSR-B-18X1' '1/0-ACSR-B-6X1']
New Line.254454871 Phases= 3 Bus1=254454868.1.2.3 Bus2=254454873.1.2.3 Length=77.65  units=m  Spacing=8'-ARM-NON-CENTER-POST-3PH wires=['1/0-ACSR-B-6X1' '1/0-ACSR-B-6X1' '1/0-ACSR-B-6X1' '1/0-ACSR-B-6X1']
New Line.254455285 Phases= 1 Bus1=254455282.1     Bus2=254455287.1     Length=107.30 units=m  Spacing=VERTICAL-1-PH-60-1PH wires=['4-ACSR-B-6X1' '4-ACSR-B-6X1']
New Line.254448615 Phases= 3 Bus1=254448612.1.2.3 Bus2=254448617.1.2.3 Length=11.45  units=m  Spacing=8'-ARM-NON-CENTER-POST-3PH wires=['336-ACSR-B-18X1' '336-ACSR-B-18X1' '336-ACSR-B-18X1' '1/0-ACSR-B-6X1']
New Line.254432860 Phases= 1 Bus1=254432857.1     Bus2=254432862.1     Length=81.88  units=m  Spacing=VERTICAL-1-PH-60-1PH wires=['2-ACSR-B-6X1' '2-ACSR-B-6X1']
New Line.262294683 Phases= 1 Bus1=262294680.1     Bus2=254448445.1     Length=35.61  units=m  Spacing=VERTICAL-1-PH-60-1PH wires=['4-ACSR-B-6X1' '4-ACSR-B-6X1']
New Line.262293549 Phases= 3 Bus1=262293546.1.2.3 Bus2=254444545.1.2.3 Length=93.24  units=m  Spacing=8'-ARM-NON-CENTER-POST-3PH wires=['2-ACSR-B-6X1' '2-ACSR-B-6X1' '2-ACSR-B-6X1' '2-ACSR-B-6X1']
New Line.254455113 Phases= 1 Bus1=254455110.2     Bus2=254455115.2     Length=53.69  units=m  Spacing=VERTICAL-1-PH-60-1PH wires=['2-ACSR-B-6X1' '2-ACSR-B-6X1']
New Line.254460356 Phases= 2 Bus1=254460303.2.3   Bus2=254460358.2.3   Length=47.93  units=m  Spacing=8'-ARM-STANDARD-2PH wires=['4-ACSR-B-6X1' '4-ACSR-B-6X1' '4-ACSR-B-6X1']
New Line.620369601 Phases= 1 Bus1=620369599.3     Bus2=254449614.3     Length=84.39  units=m  Spacing=VERTICAL-1-PH-60-1PH wires=['2-ACSR-B-6X1' '2-ACSR-B-6X1']
New Line.262294638 Phases= 1 Bus1=262294635.1     Bus2=254448358.1     Length=125.80 units=m  Spacing=VERTICAL-1-PH-60-1PH wires=['2-ACSR-B-6X1' '2-ACSR-B-6X1']
New Line.620369430 Bus1=620369427.3     Bus2=260117547.3     LineCode=1/0-AL-TRXLPELCJ-25KV Phases= 1 Length=123.00 units=m enable=yes
New Line.254448759 Phases= 1 Bus1=254448756.1     Bus2=254448761.1     Length=74.11  units=m  Spacing=VERTICAL-1-PH-60-1PH wires=['4-ACSR-B-6X1' '4-ACSR-B-6X1']
New Line.264425926 Phases= 3 Bus1=264425923.1.2.3 Bus2=254449016.1.2.3 Length=29.81  units=m  Spacing=8'-ARM-NON-CENTER-POST-3PH wires=['2-ACSR-B-6X1' '2-ACSR-B-6X1' '2-ACSR-B-6X1' '2-ACSR-B-6X1']
New Line.254448314 Phases= 1 Bus1=254448311.2     Bus2=254448316.2     Length=68.59  units=m  Spacing=VERTICAL-1-PH-60-1PH wires=['2-ACSR-B-6X1' '2-ACSR-B-6X1']
New Line.264195425 Bus1=260118361.1     Bus2=264195423.1     LineCode=1/0-AL-HMWPECN-25KV Phases= 1 Length=135.80 units=m enable=yes
New Line.254455038 Phases= 1 Bus1=254455035.2     Bus2=254455040.2     Length=50.17  units=m  Spacing=VERTICAL-1-PH-60-1PH wires=['4-ACSR-B-6X1' '4-ACSR-B-6X1']
New Line.385538758 Phases= 1 Bus1=254449473.1     Bus2=254449478.1     Length=90.70  units=m  Spacing=VERTICAL-1-PH-60-1PH wires=['2-ACSR-B-6X1' '2-ACSR-B-6X1']
New Line.254454463 Phases= 1 Bus1=254454460.1     Bus2=254454465.1     Length=60.24  units=m  Spacing=VERTICAL-1-PH-60-1PH wires=['1/0-ACSR-B-6X1' '2-ACSR-B-6X1']
New Line.262298227 Phases= 1 Bus1=262298224.3     Bus2=254460712.3     Length=36.15  units=m  Spacing=VERTICAL-1-PH-60-1PH wires=['4-ACSR-B-6X1' '4-ACSR-B-6X1']
New Line.254454983 Phases= 1 Bus1=254454980.2     Bus2=254454985.2     Length=102.40 units=m  Spacing=VERTICAL-1-PH-60-1PH wires=['2-ACSR-B-6X1' '2-ACSR-B-6X1']
New Line.263903311 Phases= 2 Bus1=263903308.2.3   Bus2=254454918.2.3   Length=88.51  units=m  Spacing=8'-ARM-STANDARD-2PH wires=['4-ACSR-B-6X1' '4-ACSR-B-6X1' '4-ACSR-B-6X1']
New Line.254454694 Phases= 1 Bus1=254454691.1     Bus2=254454696.1     Length=36.52  units=m  Spacing=VERTICAL-1-PH-60-1PH wires=['1/0-ACSR-B-6X1' '1/0-ACSR-B-6X1']
New Line.254466594 Phases= 3 Bus1=254466586.1.2.3 Bus2=254466596.1.2.3 Length=34.18  units=m  Spacing=8'-ARM-STANDARD-3PH wires=['2-ACSR-B-6X1' '2-ACSR-B-6X1' '2-ACSR-B-6X1' '2-ACSR-B-6X1']
New Line.254432830 Phases= 1 Bus1=254432827.1     Bus2=254432832.1     Length=39.42  units=m  Spacing=VERTICAL-1-PH-60-1PH wires=['4-ACSR-B-6X1' '4-ACSR-B-6X1']
New Line.264505983 Phases= 3 Bus1=264505980.1.2.3 Bus2=254449199.1.2.3 Length=57.52  units=m  Spacing=8'-ARM-NON-CENTER-POST-3PH wires=['1/0-ACSR-B-6X1' '1/0-ACSR-B-6X1' '1/0-ACSR-B-6X1' '1/0-ACSR-B-6X1']
New Line.260883621 Bus1=260883622.2     Bus2=260883623.2     LineCode=1/0-AL-TRXLPELCJ-25KV Phases= 1 Length=105.00 units=m enable=yes
New Line.474349640 Phases= 1 Bus1=474349638.3     Bus2=254449635.3     Length=63.31  units=m  Spacing=VERTICAL-1-PH-60-1PH wires=['2-ACSR-B-6X1' '2-ACSR-B-6X1']
New Line.254460406 Phases= 2 Bus1=254460403.2.3   Bus2=254460408.2.3   Length=61.26  units=m  Spacing=8'-ARM-STANDARD-2PH wires=['4-ACSR-B-6X1' '4-ACSR-B-6X1' '4-ACSR-B-6X1']
New Line.254432571 Phases= 3 Bus1=254432568.1.2.3 Bus2=254432573.1.2.3 Length=324.10 units=m  Spacing=8'-ARM-NON-CENTER-POST-3PH wires=['2-ACSR-B-6X1' '2-ACSR-B-6X1' '2-ACSR-B-6X1' '2-ACSR-B-6X1']
New Line.637786908 Bus1=637786893.1     Bus2=637786910.1     LineCode=1/0-AL-TRXLPELCJ-25KV Phases= 1 Length=1.52   units=m enable=yes
New Line.262299960 Bus1=254466527.1.2.3 Bus2=262299962.1.2.3 LineCode=1/0-AL-HMWPECN-25KV Phases= 3 Length=1.53   units=m enable=yes
New Line.254460636 Phases= 1 Bus1=254460633.1     Bus2=254460638.1     Length=31.23  units=m  Spacing=VERTICAL-1-PH-60-1PH wires=['2-ACSR-B-6X1' '2-ACSR-B-6X1']
New Line.262296547 Phases= 1 Bus1=254455586.1     Bus2=262296549.1     Length=1.53   units=m  Spacing=VERTICAL-1-PH-60-1PH wires=['2-ACSR-B-6X1' '2-ACSR-B-6X1']
New Line.254454565 Phases= 3 Bus1=254454557.1.2.3 Bus2=254454567.1.2.3 Length=39.06  units=m  Spacing=8'-ARM-NON-CENTER-POST-3PH wires=['2-ACSR-B-6X1' '2-ACSR-B-6X1' '1/0-ACSR-B-6X1' '2-ACSR-B-6X1']
New Line.262296331 Bus1=254454950.2     Bus2=262296333.2     LineCode=1/0-AL-HMWPECN-25KV Phases= 1 Length=1.53   units=m enable=yes
New Line.251375922 Phases= 3 Bus1=254432669.1.2.3 Bus2=251375924.1.2.3 Length=1.53   units=m  Spacing=8'-ARM-NON-CENTER-POST-3PH wires=['336-AAC-B-19' '336-AAC-B-19' '336-AAC-B-19' '1/0-ACSR-B-6X1']
New Line.261256679 Bus1=259492189.1     Bus2=261256681.1     LineCode=1/0-AL-TRXLPELCJ-25KV Phases= 1 Length=170.80 units=m enable=yes
New Line.254448463 Phases= 3 Bus1=254448460.1.2.3 Bus2=254448465.1.2.3 Length=50.99  units=m  Spacing=8'-ARM-NON-CENTER-POST-3PH wires=['336-ACSR-B-18X1' '336-ACSR-B-18X1' '336-ACSR-B-18X1' '1/0-ACSR-B-6X1']
New Line.254448854 Phases= 3 Bus1=254448851.1.2.3 Bus2=254448856.1.2.3 Length=70.20  units=m  Spacing=8'-ARM-NON-CENTER-POST-3PH wires=['336-ACSR-B-18X1' '336-ACSR-B-18X1' '336-ACSR-B-18X1' '1/0-ACSR-B-6X1']
New Line.263708592 Phases= 3 Bus1=254432627.1.2.3 Bus2=263708594.1.2.3 Length=1.53   units=m  Spacing=8'-ARM-NON-CENTER-POST-3PH wires=['1/0-ACSR-B-6X1' '1/0-ACSR-B-6X1' '1/0-ACSR-B-6X1' '1/0-ACSR-B-6X1']
New Line.263649989 Bus1=263649986.2     Bus2=260874776.2     LineCode=1/0-AL-TRXLPELCJ-25KV Phases= 1 Length=89.22  units=m enable=yes
New Line.450116398 Bus1=450116372.1     Bus2=450116400.1     LineCode=1/0-AL-TRXLPELCJ-25KV Phases= 1 Length=66.91  units=m enable=yes
New Line.254461070 Phases= 3 Bus1=254461066.1.2.3 Bus2=254461071.1.2.3 Length=64.39  units=m  Spacing=8'-ARM-STANDARD-3PH wires=['2-ACSR-B-6X1' '2-ACSR-B-6X1' '2-ACSR-B-6X1' '2-ACSR-B-6X1']
New Line.254460017 Phases= 1 Bus1=254460014.2     Bus2=254460019.2     Length=162.30 units=m  Spacing=VERTICAL-1-PH-60-1PH wires=['2-ACSR-B-6X1' '2-ACSR-B-6X1']
New Line.254449192 Phases= 3 Bus1=254449115.1.2.3 Bus2=254449194.1.2.3 Length=57.22  units=m  Spacing=8'-ARM-NON-CENTER-POST-3PH wires=['336-ACSR-B-18X1' '336-ACSR-B-18X1' '336-ACSR-B-18X1' '2-ACSR-B-6X1']
New Line.260932382 Bus1=260932383.3     Bus2=260119290.3     LineCode=1/0-AL-TRXLPELCJ-25KV Phases= 1 Length=107.20 units=m enable=yes
New Line.254454326 Phases= 1 Bus1=254454316.3     Bus2=254454328.3     Length=31.65  units=m  Spacing=VERTICAL-1-PH-60-1PH wires=['2-ACSR-B-6X1' '2-ACSR-B-6X1']
New Line.254455033 Phases= 1 Bus1=254455025.2     Bus2=254455035.2     Length=109.50 units=m  Spacing=VERTICAL-1-PH-60-1PH wires=['4-ACSR-B-6X1' '4-ACSR-B-6X1']
New Line.254449648 Phases= 1 Bus1=254449640.3     Bus2=254449650.3     Length=111.70 units=m  Spacing=VERTICAL-1-PH-60-1PH wires=['2-ACSR-B-6X1' '2-ACSR-B-6X1']
New Line.262298200 Bus1=262298197.2     Bus2=260119311.2     LineCode=1/0-AL-HMWPECN-25KV Phases= 1 Length=86.63  units=m enable=yes
New Line.259545076 Phases= 3 Bus1=254432733.1.2.3 Bus2=259545072.1.2.3 Length=92.08  units=m  Spacing=8'-ARM-NON-CENTER-POST-3PH wires=['1/0-ACSR-B-6X1' '1/0-ACSR-B-6X1' '1/0-ACSR-B-6X1' '2-ACSR-B-6X1']
New Line.254459725 Phases= 2 Bus1=254459722.1.3   Bus2=254459727.1.3   Length=77.87  units=m  Spacing=8'-ARM-STANDARD-2PH wires=['4-ACSR-B-6X1' '4-ACSR-B-6X1' '4-ACSR-B-6X1']
New Line.254448712 Phases= 3 Bus1=254448704.1.2.3 Bus2=254448714.1.2.3 Length=19.95  units=m  Spacing=8'-ARM-NON-CENTER-POST-3PH wires=['2-ACSR-B-6X1' '2-ACSR-B-6X1' '2-ACSR-B-6X1' '2-ACSR-B-6X1']
New Line.259311601 Phases= 3 Bus1=254444584.1.2.3 Bus2=259199760.1.2.3 Length=37.60  units=m  Spacing=8'-ARM-NON-CENTER-POST-3PH wires=['336-ACSR-B-18X1' '336-ACSR-B-18X1' '336-ACSR-B-18X1' '1/0-ACSR-B-6X1']
New Line.254459962 Phases= 2 Bus1=254459959.2.3   Bus2=254459964.2.3   Length=116.70 units=m  Spacing=8'-ARM-STANDARD-2PH wires=['4-ACSR-B-6X1' '4-ACSR-B-6X1' '4-ACSR-B-6X1']
New Line.262298119 Phases= 1 Bus1=262298116.3     Bus2=254460129.3     Length=138.20 units=m  Spacing=VERTICAL-1-PH-60-1PH wires=['2-ACSR-B-6X1' '2-ACSR-B-6X1']
New Line.254448769 Phases= 1 Bus1=254448766.1     Bus2=254448771.1     Length=82.06  units=m  Spacing=VERTICAL-1-PH-60-1PH wires=['4-ACSR-B-6X1' '4-ACSR-B-6X1']
New Line.254460032 Phases= 1 Bus1=254460004.2     Bus2=254460034.2     Length=30.52  units=m  Spacing=VERTICAL-1-PH-60-1PH wires=['2-ACSR-B-6X1' '2-ACSR-B-6X1']
New Line.254448523 Phases= 1 Bus1=254448520.2     Bus2=254448525.2     Length=63.46  units=m  Spacing=VERTICAL-1-PH-60-1PH wires=['4-ACSR-B-6X1' '4-ACSR-B-6X1']
New Line.254454998 Phases= 1 Bus1=254454970.2     Bus2=254455000.2     Length=72.41  units=m  Spacing=VERTICAL-1-PH-60-1PH wires=['4-ACSR-B-6X1' '4-ACSR-B-6X1']
New Line.254432701 Phases= 3 Bus1=254432696.1.2.3 Bus2=254432703.1.2.3 Length=69.34  units=m  Spacing=8'-ARM-NON-CENTER-POST-3PH wires=['336-AAC-B-19' '336-AAC-B-19' '336-AAC-B-19' '1/0-ACSR-B-6X1']
New Line.260873759 Bus1=260873756.1     Bus2=260873761.1     LineCode=1/0-AL-TRXLPELCJ-25KV Phases= 1 Length=659.70 units=m enable=yes
New Line.254432662 Phases= 3 Bus1=254432659.1.2.3 Bus2=254432664.1.2.3 Length=297.40 units=m  Spacing=8'-ARM-NON-CENTER-POST-3PH wires=['2-CU-B-7' '2-CU-B-7' '2-CU-B-7' '4-CU-B-7']
New Line.254449583 Phases= 1 Bus1=254449580.3     Bus2=254449585.3     Length=83.43  units=m  Spacing=VERTICAL-1-PH-60-1PH wires=['2-ACSR-B-6X1' '2-ACSR-B-6X1']
New Line.254455290 Phases= 2 Bus1=254455277.1.3   Bus2=254455292.1.3   Length=41.96  units=m  Spacing=8'-ARM-STANDARD-2PH wires=['4-ACSR-B-6X1' '4-ACSR-B-6X1' '4-ACSR-B-6X1']
New Line.254449573 Phases= 1 Bus1=254449560.3     Bus2=254449575.3     Length=50.77  units=m  Spacing=VERTICAL-1-PH-60-1PH wires=['2-ACSR-B-6X1' '2-ACSR-B-6X1']
New Line.262296367 Phases= 1 Bus1=254455035.2     Bus2=262296369.2     Length=1.53   units=m  Spacing=VERTICAL-1-PH-60-1PH wires=['2-ACSR-B-6X1' '2-ACSR-B-6X1']
New Line.254449259 Phases= 1 Bus1=254449256.1     Bus2=254449261.1     Length=44.74  units=m  Spacing=VERTICAL-1-PH-60-1PH wires=['2-ACSR-B-6X1' '2-ACSR-B-6X1']
New Line.254466485 Phases= 3 Bus1=254466481.1.2.3 Bus2=254466487.1.2.3 Length=27.52  units=m  Spacing=8'-ARM-NON-CENTER-POST-3PH wires=['2-ACSR-B-6X1' '2-ACSR-B-6X1' '2-ACSR-B-6X1' '2-ACSR-B-6X1']
New Line.263606963 Bus1=263606960.3     Bus2=260848169.3     LineCode=1/0-AL-TRXLPELCJ-25KV Phases= 1 Length=87.95  units=m enable=yes
New Line.254466470 Phases= 1 Bus1=254466465.1     Bus2=254466472.1     Length=46.33  units=m  Spacing=VERTICAL-1-PH-60-1PH wires=['2-ACSR-B-6X1' '1/0-ACSR-B-6X1']
New Line.262296453 Phases= 1 Bus1=262296450.3     Bus2=254455374.3     Length=134.80 units=m  Spacing=VERTICAL-1-PH-60-1PH wires=['2-ACSR-B-6X1' '2-ACSR-B-6X1']
New Line.254460740 Phases= 1 Bus1=254460732.3     Bus2=254460742.3     Length=75.20  units=m  Spacing=VERTICAL-1-PH-60-1PH wires=['4-ACSR-B-6X1' '4-ACSR-B-6X1']
New Line.262298191 Bus1=262298188.1.2.3 Bus2=260119306.1.2.3 LineCode=1/0-AL-HMWPECN-25KV Phases= 3 Length=23.18  units=m enable=yes
New Line.254454423 Phases= 1 Bus1=254454420.2     Bus2=254454425.2     Length=54.62  units=m  Spacing=VERTICAL-1-PH-60-1PH wires=['2-ACSR-B-6X1' '2-ACSR-B-6X1']
New Line.385538080 Phases= 1 Bus1=262294608.1     Bus2=385538079.1     Length=65.84  units=m  Spacing=VERTICAL-1-PH-60-1PH wires=['2-ACSR-B-6X1' '2-ACSR-B-6X1']
New Line.254460658 Phases= 3 Bus1=254460655.1.2.3 Bus2=254460660.1.2.3 Length=53.52  units=m  Spacing=8'-ARM-STANDARD-3PH wires=['336-ACSR-B-18X1' '336-ACSR-B-18X1' '336-ACSR-B-18X1' '336-ACSR-B-18X1']
New Line.254455068 Phases= 1 Bus1=254455065.2     Bus2=254455070.2     Length=48.52  units=m  Spacing=VERTICAL-1-PH-60-1PH wires=['2-ACSR-B-6X1' '2-ACSR-B-6X1']
New Line.254455362 Phases= 3 Bus1=254455359.1.2.3 Bus2=254455364.1.2.3 Length=51.63  units=m  Spacing=8'-ARM-NON-CENTER-POST-3PH wires=['4-ACSR-B-6X1' '4-ACSR-B-6X1' '4-ACSR-B-6X1' '2-ACSR-B-6X1']
New Line.262294854 Phases= 1 Bus1=262294851.1     Bus2=254449159.1     Length=83.10  units=m  Spacing=VERTICAL-1-PH-60-1PH wires=['4-ACSR-B-6X1' '4-ACSR-B-6X1']
New Line.254449416 Phases= 1 Bus1=254449408.1     Bus2=254449418.1     Length=63.07  units=m  Spacing=VERTICAL-1-PH-60-1PH wires=['2-ACSR-B-6X1' '2-ACSR-B-6X1']
New Line.459035145 Phases= 1 Bus1=459035142.3     Bus2=254460917.3     Length=87.55  units=m  Spacing=VERTICAL-1-PH-60-1PH wires=['4-ACSR-B-6X1' '4-ACSR-B-6X1']
New Line.254454398 Phases= 1 Bus1=254454390.2     Bus2=254454400.2     Length=35.09  units=m  Spacing=VERTICAL-1-PH-60-1PH wires=['2-ACSR-B-6X1' '2-ACSR-B-6X1']
New Line.254448433 Phases= 3 Bus1=254448430.1.2.3 Bus2=254448435.1.2.3 Length=48.88  units=m  Spacing=8'-ARM-NON-CENTER-POST-3PH wires=['336-ACSR-B-18X1' '336-ACSR-B-18X1' '336-ACSR-B-18X1' '1/0-ACSR-B-6X1']
New Line.254449663 Phases= 3 Bus1=254448570.1.2.3 Bus2=254449665.1.2.3 Length=35.37  units=m  Spacing=8'-ARM-STANDARD-3PH wires=['336-ACSR-B-18X1' '336-ACSR-B-18X1' '336-ACSR-B-18X1' '336-ACSR-B-18X1']
New Line.262296300 Phases= 1 Bus1=262296297.2     Bus2=254454883.2     Length=78.16  units=m  Spacing=VERTICAL-1-PH-60-1PH wires=['2-ACSR-B-6X1' '2-ACSR-B-6X1']
New Line.254454876 Phases= 3 Bus1=254454873.1.2.3 Bus2=254454878.1.2.3 Length=29.80  units=m  Spacing=8'-ARM-NON-CENTER-POST-3PH wires=['1/0-ACSR-B-6X1' '1/0-ACSR-B-6X1' '1/0-ACSR-B-6X1' '1/0-ACSR-B-6X1']
New Line.254466599 Phases= 3 Bus1=254466591.1.2.3 Bus2=254466601.1.2.3 Length=65.67  units=m  Spacing=8'-ARM-NON-CENTER-POST-3PH wires=['1/0-ACSR-B-6X1' '1/0-ACSR-B-6X1' '1/0-ACSR-B-6X1' '1/0-ACSR-B-6X1']
New Line.254432588 Phases= 3 Bus1=254432578.1.2.3 Bus2=254432590.1.2.3 Length=724.70 units=m  Spacing=8'-ARM-NON-CENTER-POST-3PH wires=['2-ACSR-B-6X1' '2-ACSR-B-6X1' '2-ACSR-B-6X1' '2-ACSR-B-6X1']
New Line.254448217 Phases= 3 Bus1=254448209.1.2.3 Bus2=254448219.1.2.3 Length=66.89  units=m  Spacing=8'-ARM-NON-CENTER-POST-3PH wires=['336-ACSR-B-18X1' '336-ACSR-B-18X1' '336-ACSR-B-18X1' '1/0-ACSR-B-6X1']
New Line.254454846 Phases= 1 Bus1=254454843.2     Bus2=254454848.2     Length=110.60 units=m  Spacing=VERTICAL-1-PH-60-1PH wires=['2-ACSR-B-6X1' '2-ACSR-B-6X1']
New Line.254432870 Phases= 1 Bus1=254432867.1     Bus2=254432872.1     Length=60.15  units=m  Spacing=VERTICAL-1-PH-60-1PH wires=['2-ACSR-B-6X1' '2-ACSR-B-6X1']
New Line.254448665 Phases= 3 Bus1=254448657.1.2.3 Bus2=254448667.1.2.3 Length=86.77  units=m  Spacing=8'-ARM-NON-CENTER-POST-3PH wires=['336-ACSR-B-18X1' '336-ACSR-B-18X1' '336-ACSR-B-18X1' '1/0-ACSR-B-6X1']
New Line.262296534 Phases= 1 Bus1=262296531.1     Bus2=254455556.1     Length=155.20 units=m  Spacing=VERTICAL-1-PH-60-1PH wires=['2-ACSR-B-6X1' '2-ACSR-B-6X1']
New Line.254454428 Phases= 1 Bus1=254454429.2     Bus2=254454430.2     Length=31.17  units=m  Spacing=VERTICAL-1-PH-60-1PH wires=['2-ACSR-B-6X1' '2-ACSR-B-6X1']
New Line.262296165 Phases= 3 Bus1=262296162.1.2.3 Bus2=254454296.1.2.3 Length=15.76  units=m  Spacing=8'-ARM-NON-CENTER-POST-3PH wires=['2-ACSR-B-6X1' '2-ACSR-B-6X1' '2-ACSR-B-6X1' '2-ACSR-B-6X1']
New Line.254454639 Phases= 1 Bus1=254454636.1     Bus2=254454641.1     Length=90.07  units=m  Spacing=VERTICAL-1-PH-60-1PH wires=['2-ACSR-B-6X1' '2-ACSR-B-6X1']
New Line.254432716 Phases= 3 Bus1=254432708.1.2.3 Bus2=254432718.1.2.3 Length=4.20   units=m  Spacing=8'-ARM-NON-CENTER-POST-3PH wires=['1/0-ACSR-B-6X1' '1/0-ACSR-B-6X1' '1/0-ACSR-B-6X1' '2-ACSR-B-6X1']
New Line.254454250 Phases= 3 Bus1=254449685.1.2.3 Bus2=254454252.1.2.3 Length=94.96  units=m  Spacing=8'-ARM-NON-CENTER-POST-3PH wires=['1/0-ACSR-B-6X1' '1/0-ACSR-B-6X1' '2-ACSR-B-6X1' '2-ACSR-B-6X1']
New Line.254448468 Phases= 3 Bus1=254448465.1.2.3 Bus2=254448470.1.2.3 Length=44.24  units=m  Spacing=8'-ARM-NON-CENTER-POST-3PH wires=['336-ACSR-B-18X1' '336-ACSR-B-18X1' '336-ACSR-B-18X1' '1/0-ACSR-B-6X1']
New Line.262298294 Phases= 1 Bus1=254460867.3     Bus2=262298296.3     Length=1.52   units=m  Spacing=VERTICAL-1-PH-60-1PH wires=['2-ACSR-B-6X1' '2-ACSR-B-6X1']
New Line.262298123 Phases= 2 Bus1=254460139.2.3   Bus2=262298125.2.3   Length=1.52   units=m  Spacing=8'-ARM-STANDARD-2PH wires=['2-ACSR-B-6X1' '2-ACSR-B-6X1' '2-ACSR-B-6X1']
New Line.263744501 Bus1=263744498.2     Bus2=261013856.2     LineCode=1/0-AL-TRXLPELCJ-25KV Phases= 1 Length=89.33  units=m enable=yes
New Line.262298164 Phases= 1 Bus1=262298161.2     Bus2=254460473.2     Length=66.58  units=m  Spacing=VERTICAL-1-PH-60-1PH wires=['1/0-ACSR-WP-6X1' '1/0-ACSR-WP-6X1']
New Line.254454468 Phases= 3 Bus1=254454445.1.2.3 Bus2=254454470.1.2.3 Length=56.63  units=m  Spacing=8'-ARM-NON-CENTER-POST-3PH wires=['2-ACSR-B-6X1' '2-ACSR-B-6X1' '1/0-ACSR-B-6X1' '2-ACSR-B-6X1']
New Line.263785782 Phases= 2 Bus1=254455292.1.3   Bus2=263785784.1.3   Length=1.52   units=m  Spacing=8'-ARM-STANDARD-2PH wires=['4-ACSR-B-6X1' '4-ACSR-B-6X1' '4-ACSR-B-6X1']
New Line.262299956 Bus1=262299953.1.2.3 Bus2=261127581.1.2.3 LineCode=1/0-AL-HMWPECN-25KV Phases= 3 Length=142.50 units=m enable=yes
New Line.262294651 Phases= 1 Bus1=254448353.1     Bus2=262294653.1     Length=1.53   units=m  Spacing=VERTICAL-1-PH-60-1PH wires=['2-ACSR-B-6X1' '2-ACSR-B-6X1']
New Line.620369789 Phases= 1 Bus1=620369785.3     Bus2=259103776.3     Length=70.03  units=m  Spacing=VERTICAL-1-PH-104-1PH wires=['2-ACSR-B-6X1' '2-ACSR-B-6X1']
New Line.254449202 Phases= 3 Bus1=254449199.1.2.3 Bus2=254449204.1.2.3 Length=44.37  units=m  Spacing=8'-ARM-NON-CENTER-POST-3PH wires=['1/0-ACSR-B-6X1' '1/0-ACSR-B-6X1' '1/0-ACSR-B-6X1' '1/0-ACSR-B-6X1']
New Line.262296507 Bus1=262296504.3     Bus2=260118351.3     LineCode=1/0-AL-HMWPECN-25KV Phases= 1 Length=179.40 units=m enable=yes
New Line.254455183 Phases= 1 Bus1=254455100.2     Bus2=254455185.2     Length=129.60 units=m  Spacing=VERTICAL-1-PH-60-1PH wires=['4-ACSR-B-6X1' '4-ACSR-B-6X1']
New Line.254432927 Phases= 1 Bus1=254432924.3     Bus2=254432929.3     Length=49.18  units=m  Spacing=VERTICAL-1-PH-60-1PH wires=['2-ACSR-B-6X1' '2-ACSR-B-6X1']
New Line.262296462 Bus1=262296459.1     Bus2=260118341.1     LineCode=1/0-AL-TRXLPELCJ-25KV Phases= 1 Length=131.30 units=m enable=yes
New Line.864708828 Phases= 3 Bus1=254454913.1.2.3 Bus2=864708827.1.2.3 Length=22.15  units=m  Spacing=8'-ARM-NON-CENTER-POST-3PH wires=['1/0-ACSR-B-6X1' '1/0-ACSR-B-6X1' '1/0-ACSR-B-6X1' '1/0-ACSR-B-6X1']
New Line.385538073 Phases= 3 Bus1=385538070.1.2.3 Bus2=254461087.1.2.3 Length=50.04  units=m  Spacing=8'-ARM-NON-CENTER-POST-3PH wires=['336-ACSR-B-18X1' '336-ACSR-B-18X1' '336-ACSR-B-18X1' '1/0-ACSR-B-6X1']
New Line.262290660 Phases= 1 Bus1=262290657.3     Bus2=254432939.3     Length=79.43  units=m  Spacing=VERTICAL-1-PH-60-1PH wires=['2-ACSR-B-6X1' '2-ACSR-B-6X1']
New Line.254432813 Phases= 3 Bus1=254432632.1.2.3 Bus2=254432815.1.2.3 Length=168.10 units=m  Spacing=8'-ARM-NON-CENTER-POST-3PH wires=['1/0-ACSR-B-6X1' '1/0-ACSR-B-6X1' '1/0-ACSR-B-6X1' '1/0-ACSR-B-6X1']
New Line.262298105 Bus1=254460074.3     Bus2=262298107.3     LineCode=1/0-AL-HMWPECN-25KV Phases= 1 Length=1.52   units=m enable=yes
New Line.262290610 Phases= 3 Bus1=254432524.1.2.3 Bus2=262290612.1.2.3 Length=1.53   units=m  Spacing=8'-ARM-NON-CENTER-POST-3PH wires=['1/0-ACSR-B-6X1' '1/0-ACSR-B-6X1' '1/0-ACSR-B-6X1' '1/0-ACSR-B-6X1']
New Line.259565005 Phases= 3 Bus1=254454360.1.2.3 Bus2=259565007.1.2.3 Length=26.49  units=m  Spacing=8'-ARM-STANDARD-3PH wires=['1/0-ACSR-B-6X1' '1/0-ACSR-B-6X1' '1/0-ACSR-B-6X1' '1/0-ACSR-B-6X1']
New Line.259492192 Phases= 3 Bus1=254448363.1.2.3 Bus2=254448387.1.2.3 Length=22.08  units=m  Spacing=8'-ARM-NON-CENTER-POST-3PH wires=['336-ACSR-B-18X1' '336-ACSR-B-18X1' '336-ACSR-B-18X1' '1/0-ACSR-B-6X1']
New Line.254454856 Phases= 1 Bus1=254454853.2     Bus2=254454858.2     Length=52.53  units=m  Spacing=VERTICAL-1-PH-60-1PH wires=['2-ACSR-B-6X1' '2-ACSR-B-6X1']
New Line.385539297 Phases= 3 Bus1=385539295.1.2.3 Bus2=254454480.1.2.3 Length=118.00 units=m  Spacing=8'-ARM-NON-CENTER-POST-3PH wires=['2-ACSR-B-6X1' '2-ACSR-B-6X1' '1/0-ACSR-B-6X1' '2-ACSR-B-6X1']
New Line.260118294 Bus1=260118291.1     Bus2=260118296.1     LineCode=1/0-AL-HMWPECN-25KV Phases= 1 Length=94.72  units=m enable=yes
New Line.262296376 Bus1=254455070.2     Bus2=262296378.2     LineCode=1/0-AL-TRXLPELCJ-25KV Phases= 1 Length=1.53   units=m enable=yes
New Line.385539755 Phases= 1 Bus1=254454748.2     Bus2=385539757.2     Length=1.51   units=m  Spacing=VERTICAL-1-PH-60-1PH wires=['2-ACSR-B-6X1' '2-ACSR-B-6X1']
New Line.254461065 Phases= 3 Bus1=254461051.1.2.3 Bus2=254461066.1.2.3 Length=53.12  units=m  Spacing=8'-ARM-STANDARD-3PH wires=['2-ACSR-B-6X1' '2-ACSR-B-6X1' '2-ACSR-B-6X1' '2-ACSR-B-6X1']
New Line.459035175 Phases= 1 Bus1=459035172.3     Bus2=254461017.3     Length=76.57  units=m  Spacing=VERTICAL-1-PH-60-1PH wires=['2-ACSR-B-6X1' '2-ACSR-B-6X1']
New Line.254454458 Phases= 1 Bus1=254454455.1     Bus2=254454460.1     Length=17.20  units=m  Spacing=VERTICAL-1-PH-60-1PH wires=['1/0-ACSR-B-6X1' '2-ACSR-B-6X1']
New Line.254460850 Phases= 1 Bus1=254460851.3     Bus2=254460852.3     Length=171.70 units=m  Spacing=VERTICAL-1-PH-60-1PH wires=['4-ACSR-B-6X1' '4-ACSR-B-6X1']
New Line.264398333 Phases= 2 Bus1=264398330.2.3   Bus2=254459879.2.3   Length=111.90 units=m  Spacing=8'-ARM-STANDARD-2PH wires=['4-ACSR-B-6X1' '4-ACSR-B-6X1' '4-ACSR-B-6X1']
New Line.474204068 Phases= 1 Bus1=254455155.2     Bus2=474204070.2     Length=1.51   units=m  Spacing=VERTICAL-1-PH-104-1PH wires=['1/0-ACSR-B-6X1' '1/0-ACSR-B-6X1']
New Line.264550411 Phases= 2 Bus1=264550408.1.3   Bus2=254459742.1.3   Length=26.33  units=m  Spacing=8'-ARM-STANDARD-2PH wires=['4-ACSR-B-6X1' '4-ACSR-B-6X1' '4-ACSR-B-6X1']
New Line.262294602 Phases= 3 Bus1=262294599.1.2.3 Bus2=254448244.1.2.3 Length=70.61  units=m  Spacing=8'-ARM-NON-CENTER-POST-3PH wires=['4-ACSR-B-6X1' '4-ACSR-B-6X1' '4-ACSR-B-6X1' '4-ACSR-B-6X1']
New Line.287672263 Phases= 1 Bus1=287672260.3     Bus2=254432924.3     Length=176.40 units=m  Spacing=VERTICAL-1-PH-60-1PH wires=['2-ACSR-B-6X1' '2-ACSR-B-6X1']
New Line.254455624 Phases= 1 Bus1=254455621.1     Bus2=254455626.1     Length=123.70 units=m  Spacing=VERTICAL-1-PH-60-1PH wires=['2-ACSR-B-6X1' '2-ACSR-B-6X1']
New Line.254448896 Phases= 3 Bus1=254448891.1.2.3 Bus2=254448898.1.2.3 Length=27.53  units=m  Spacing=8'-ARM-NON-CENTER-POST-3PH wires=['1/0-ACSR-B-6X1' '1/0-ACSR-B-6X1' '1/0-ACSR-B-6X1' '2-ACSR-B-6X1']
New Line.254455275 Phases= 3 Bus1=254455272.1.2.3 Bus2=254455277.1.2.3 Length=159.90 units=m  Spacing=8'-ARM-NON-CENTER-POST-3PH wires=['1/0-ACSR-B-6X1' '1/0-ACSR-B-6X1' '1/0-ACSR-B-6X1' '1/0-ACSR-B-6X1']
New Line.254432620 Phases= 3 Bus1=254432617.1.2.3 Bus2=254432622.1.2.3 Length=140.20 units=m  Spacing=8'-ARM-NON-CENTER-POST-3PH wires=['2-CU-B-7' '2-CU-B-7' '2-CU-B-7' '2-CU-B-7']
New Line.254432900 Phases= 3 Bus1=254432901.1.2.3 Bus2=254432902.1.2.3 Length=53.75  units=m  Spacing=8'-ARM-NON-CENTER-POST-3PH wires=['1/0-ACSR-B-6X1' '1/0-ACSR-B-6X1' '1/0-ACSR-B-6X1' '1/0-ACSR-B-6X1']
New Line.254454503 Phases= 1 Bus1=254454500.1     Bus2=254454505.1     Length=32.28  units=m  Spacing=VERTICAL-1-PH-60-1PH wires=['2-ACSR-B-6X1' '1/0-ACSR-B-6X1']
New Line.254448548 Phases= 1 Bus1=254448545.1     Bus2=254448550.1     Length=114.90 units=m  Spacing=VERTICAL-1-PH-60-1PH wires=['2-ACSR-B-6X1' '2-ACSR-B-6X1']
New Line.254460446 Phases= 1 Bus1=254460433.2     Bus2=254460448.2     Length=153.80 units=m  Spacing=VERTICAL-1-PH-60-1PH wires=['2-ACSR-B-6X1' '2-ACSR-B-6X1']
New Line.262296489 Phases= 1 Bus1=262296486.3     Bus2=254455504.3     Length=111.40 units=m  Spacing=VERTICAL-1-PH-60-1PH wires=['1/0-ACSR-WP-6X1' '1/0-ACSR-WP-6X1']
New Line.264425899 Phases= 3 Bus1=254444513.1.2.3 Bus2=264425896.1.2.3 Length=39.58  units=m  Spacing=8'-ARM-NON-CENTER-POST-3PH wires=['336-ACSR-B-18X1' '336-ACSR-B-18X1' '336-ACSR-B-18X1' '1/0-ACSR-B-6X1']
New Line.254449108 Phases= 3 Bus1=254449105.1.2.3 Bus2=254449110.1.2.3 Length=89.05  units=m  Spacing=8'-ARM-NON-CENTER-POST-3PH wires=['1/0-ACSR-B-6X1' '1/0-ACSR-B-6X1' '1/0-ACSR-B-6X1' '1/0-ACSR-B-6X1']
New Line.254459907 Phases= 2 Bus1=254459904.2.3   Bus2=254459909.2.3   Length=25.85  units=m  Spacing=8'-ARM-STANDARD-2PH wires=['4-ACSR-B-6X1' '4-ACSR-B-6X1' '4-ACSR-B-6X1']
New Line.254432559 Phases= 3 Bus1=254432556.1.2.3 Bus2=254432561.1.2.3 Length=643.10 units=m  Spacing=8'-ARM-NON-CENTER-POST-3PH wires=['2-CU-B-7' '2-CU-B-7' '2-CU-B-7' '4-CU-B-7']
New Line.264385644 Phases= 3 Bus1=254432474.1.2.3 Bus2=264385646.1.2.3 Length=1.52   units=m  Spacing=8'-ARM-NON-CENTER-POST-3PH wires=['2-CU-B-7' '2-CU-B-7' '2-CU-B-7' '4-CU-B-7']
New Line.263996907 Bus1=259547522.1.2.3 Bus2=263996909.1.2.3 LineCode=1/0-AL-TRXLPELCJ-25KV Phases= 3 Length=1.53   units=m enable=yes
New Line.254454597 Phases= 3 Bus1=254454592.1.2.3 Bus2=254454599.1.2.3 Length=81.64  units=m  Spacing=8'-ARM-NON-CENTER-POST-3PH wires=['2-ACSR-B-6X1' '2-ACSR-B-6X1' '1/0-ACSR-B-6X1' '2-ACSR-B-6X1']
New Line.262294750 Phases= 1 Bus1=254448741.1     Bus2=262294752.1     Length=1.52   units=m  Spacing=VERTICAL-1-PH-60-1PH wires=['4-ACSR-B-6X1' '4-ACSR-B-6X1']
New Line.274925858 Phases= 3 Bus1=274925856.1.2.3 Bus2=254466399.1.2.3 Length=66.22  units=m  Spacing=8'-ARM-NON-CENTER-POST-3PH wires=['2-ACSR-B-6X1' '2-ACSR-B-6X1' '2-ACSR-B-6X1' '2-ACSR-B-6X1']
...
